# ===================
# | OBCS parameters |
# ===================

# Open boundary types and locations
 &OBCS_PARM01
 useOBCStides=.TRUE.,
 tidalPeriod=43200,
 OBNamFile='OBNamFile.bin',
 OBNphFile='OBNphFile.bin',
 OBSamFile='OBSamFile.bin',
 OBSphFile='OBSphFile.bin',
 &

